 # Bcc Fe oriented X=[100], Y=[010], Z=[001].
 CRYSTAL
 PRIMVEC
      2.80000000        0.00000000        0.00000000
      0.00000000        2.80000000        0.00000000
      0.00000000        0.00000000        2.80000000
 CONVVEC
      2.80000000        0.00000000        0.00000000
      0.00000000        2.80000000        0.00000000
      0.00000000        0.00000000        2.80000000
 PRIMCOORD
        2 1
26        0.00000000        0.00000000        0.00000000
26        1.40000000        1.40000000        1.40000000
